<?xml version="1.0" encoding="UTF-8"?>
<routes>
    <vType id="car" accel="2.6" decel="4.5" sigma="0.5" length="4.5" minGap="2.5" 
           maxSpeed="13.89" guiShape="passenger/sedan" carFollowModel="IDM"/>
    
    <!-- Routes using actual edge names from generated network -->
    <!-- North to South -->
    <route id="north_south" edges="top0A0 A0bottom0"/>
    <!-- South to North -->
    <route id="south_north" edges="bottom0A0 A0top0"/>
    <!-- East to West -->
    <route id="east_west" edges="right0A0 A0left0"/>
    <!-- West to East -->
    <route id="west_east" edges="left0A0 A0right0"/>
    
    <!-- Traffic flows -->
    <flow id="f_ns" type="car" route="north_south" begin="0" end="3600" vehsPerHour="300"/>
    <flow id="f_sn" type="car" route="south_north" begin="0" end="3600" vehsPerHour="300"/>
    <flow id="f_ew" type="car" route="east_west" begin="0" end="3600" vehsPerHour="300"/>
    <flow id="f_we" type="car" route="west_east" begin="0" end="3600" vehsPerHour="300"/>
</routes>
