<?xml version="1.0" encoding="UTF-8"?>
<configuration>
    <input>
        <net-file value="intersection.net.xml"/>
        <route-files value="routes.rou.xml"/>
        <additional-files value="additional.add.xml,polygons.poly.xml"/>
        <gui-settings-file value="view.settings.xml"/>
    </input>
    <time>
        <begin value="0"/>
        <end value="3600"/>
    </time>
    <gui_only>
        <gui-settings-file value="view.settings.xml"/>
    </gui_only>
</configuration>